   15
Time step:                2100 Sim. Time [au]       21000.00
Sn    -2.595423    -3.931359     2.570585
 C    -1.825307    -1.990580     2.048034
 C    -2.684971    -5.262965     1.020245
 C    -3.757834    -4.060953     4.220749
 O    -9.451691     5.373161     7.923612
 H    -9.865829     6.225698     7.642335
 H    -1.667754    -5.005576     0.850073
 H    -3.042768    -4.605700     0.062852
 H    -2.867134    -6.219966     1.498443
 H    -2.711002    -1.498782     1.628077
 H    -1.733484    -1.482899     3.101397
 H    -0.752781    -2.271837     1.753774
 H    -4.817555    -3.717739     4.167928
 H    -3.308993    -4.998129     4.456454
 H    -3.414554    -3.138851     4.649824
