   11
FINAL HEAT OF FORMATION = 21000.000000
 C     2.834291    -0.826480    -3.751053
Sn     0.810458    -0.185404     0.914231
 O    -0.744840     0.863584     0.614720
 O     1.718644     0.198219     2.483818
 O   -14.233120     7.069590     6.471147
 H    -1.273879     1.401193     1.107074
 H     3.930476    -0.562419    -3.788860
 H     2.090924    -0.227776    -4.455011
 H     2.806288    -1.824239    -3.976215
 H     1.175315     0.643879     3.107793
 H   -14.374748     6.224903     6.102662
