   11
FINAL HEAT OF FORMATION = 21000.000000
 O     1.938353    -0.785892    -0.376447
Sn     1.699190     1.053403    -0.829198
 O     3.268105     2.225621    -1.153305
 C     0.638486    -4.606756    -6.247282
 O     0.161075     1.332614    -1.672721
 H     4.157654     2.009548    -0.821679
 H     0.066587    -5.028501    -5.462595
 H     1.390144    -5.316272    -6.486530
 H    -0.067521    -4.162752    -6.945176
 H     2.785102    -1.027899     0.105061
 H    -0.502284     0.785318    -2.075287
