   11
FINAL HEAT OF FORMATION = 21000.000000
 C     1.881925    -0.975637    -3.172434
Sn     5.267680     2.878907     0.325981
 O     7.095871     3.205535     0.427467
 O     3.835171     2.512225     6.051215
 O    -9.478596     9.015365     8.638947
 H     7.081772     3.316437     1.358912
 H     1.057728    -0.975926    -2.484670
 H     2.277327    -1.821585    -3.609681
 H     1.883757    -0.258995    -3.999085
 H     3.867906     3.205836     6.594665
 H    -9.158934     9.145483     7.822993
