   11
FINAL HEAT OF FORMATION = 14000.000000
 O     1.930877    -0.203231     0.133121
Sn     1.801662     0.845173    -1.402115
 O     3.118284     1.973500    -1.717840
 C     1.192011    -0.930225    -3.020113
 O     0.163835     1.821871    -1.422493
 H     3.103606     2.859335    -1.271763
 H     1.914635    -1.707146    -3.199276
 H     1.367238    -0.407989    -4.052565
 H     0.159507    -1.128268    -2.923501
 H     1.292731    -0.090172     0.837875
 H     0.263209     2.757473    -0.989086
