   11
FINAL HEAT OF FORMATION = 21000.000000
 C    -0.913084    -1.186067    -4.152467
Sn    -0.331187     0.204782    -2.782477
 O    -0.402090    -0.557457    -1.142477
 O     0.555164     1.745912    -2.690724
 O     7.838691    -0.635261    11.040995
 H     1.010615     2.503697    -2.978886
 H    -1.837709    -1.230811    -4.665438
 H    -0.929582    -2.118757    -3.515014
 H     0.017198    -1.387931    -4.728987
 H    10.545199     4.534810    12.326571
 H    -0.240646    -0.057370    -0.355369
